*SPEF "IEEE 1481-1998"
*DESIGN "counter"
*DATE "Sat Mar 21 19:42:13 2026"
*VENDOR "Cadence Design Systems, Inc."
*PROGRAM "Innovus"
*VERSION "21.15-s110_1"
*DESIGN_FLOW "PIN_CAP NONE" "NAME_SCOPE LOCAL"
*DIVIDER /
*DELIMITER :
*BUS_DELIMITER []
*T_UNIT 1 NS
*C_UNIT 1 PF
*R_UNIT 1 OHM
*L_UNIT 1 HENRY

// MMMC spef file for corner 'RC_CORNER'

*NAME_MAP

*1 clk
*2 rst
*3 q[3]
*4 q[2]
*5 q[1]
*6 q[0]
*7 n_0
*8 n_1
*9 n_2
*10 n_3
*11 n_4
*12 n_5
*13 n_6
*14 q_reg\[3\]
*15 q_reg\[2\]
*16 g85__2398
*17 q_reg\[1\]
*18 g88__5107
*19 g87__6260
*20 g90__4319
*21 g91
*22 g92
*23 q_reg\[0\]


*PORTS

*1 I *C 0 0
*2 I *C 0 0
*3 O *C 0 0
*4 O *C 0 0
*5 O *C 0 0
*6 O *C 0 0


*D_NET *1 0.00143051

*CONN
*P *1 I *C 0 0 *L 0
*I *23:CK I *C 17.545 9.425 *L 0.0018 *D DFFRX2
*I *17:CK I *C 16.965 11.745 *L 0.00175 *D DFFRHQX2
*I *15:CK I *C 14.065 11.745 *L 0.00175 *D DFFRHQX2
*I *14:CK I *C 17.835 6.525 *L 0.00175 *D SDFFRHQX2

*CAP
1 *14:CK 0.000250877
2 *23:CK 2.2468e-05
3 *17:CK 2.20567e-05
4 *15:CK 0.000262138
5 *1:5 0.000431059
6 *1:6 0.000441908828

*RES
1 *1:6 *15:CK 4.56726551
2 *17:CK *1:6 1.45375
3 *23:CK *1:5 0.78472
4 *1:5 *1:6 1.24503
5 *14:CK *1:5 3.38015
6 *1 *15:CK 0.500032
*END

*D_NET *3 0.00163722

*CONN
*P *3 O *C 0 0 *L 0.15
*I *21:A I *C 11.745 8.845 *L 0.00273 *D CLKINVX1
*I *14:SI I *C 10.005 6.525 *L 0.00272 *D SDFFRHQX2
*I *14:Q O *C 18.415 6.235 *L 0 *D SDFFRHQX2

*CAP
1 *14:Q 6.84307e-05
2 *21:A 7.36747e-05
3 *14:SI 1.40701e-05
4 *3:4 0.000181673
5 *3:5 0.000622864
6 *3:6 0.000676512734

*RES
1 *3:6 *3:5 7.30705261
2 *3:4 *3:6 1.57222
3 *14:SI *3:6 1.45381
4 *21:A *3:4 1.11095
5 *3:5 *14:Q 1.22301
6 *3 *14:Q 0.499952
*END

*D_NET *4 0.000871181

*CONN
*P *4 O *C 0 0 *L 0.15
*I *19:A I *C 12.325 16.965 *L 0.00157 *D NAND2XL
*I *16:A0 I *C 12.615 14.065 *L 0.00157 *D OA21XL
*I *15:Q O *C 14.645 11.455 *L 0 *D DFFRHQX2

*CAP
1 *15:Q 0.000141086
2 *19:A 0.000180425
3 *4:4 0.000170053
4 *4:5 0.000114084
5 *4:6 0.000265538691

*RES
1 *19:A *4:6 3.39448452
2 *16:A0 *4:6 0.499984
3 *4:6 *4:5 1.25434
4 *4:4 *15:Q 1.82083
5 *4:5 *4:4 0.813607
6 *4 *15:Q 0.499984
*END

*D_NET *5 0.00065136

*CONN
*P *5 O *C 0 0 *L 0.15
*I *20:A I *C 16.095 14.355 *L 0.00178 *D AND2X1
*I *18:A1N I *C 18.995 14.065 *L 0.00175 *D AOI2BB1XL
*I *17:Q O *C 16.385 11.455 *L 0 *D DFFRHQX2

*CAP
1 *18:A1N 5.78778e-05
2 *17:Q 1.00717e-05
3 *20:A 5.69811e-05
4 *5:4 0.000172615
5 *5:5 9.60841e-05
6 *5:6 0.000257730488

*RES
1 *20:A *5:6 1.8009
2 *5:5 *17:Q 0.143414
3 *5:6 *5:5 2.04944611
4 *5:4 *5:6 1.54972
5 *18:A1N *5:4 0.880715
6 *5 *17:Q 0.500009
*END

*D_NET *6 0.00110519

*CONN
*P *6 O *C 0 0 *L 0.15
*I *23:Q O *C 16.675 9.425 *L 0 *D DFFRX2
*I *20:B I *C 16.675 14.355 *L 0.00172 *D AND2X1
*I *18:A0N I *C 19.575 14.355 *L 0.00179 *D AOI2BB1XL

*CAP
1 *18:A0N 0.000208676
2 *23:Q 0.000197827
3 *20:B 5.27481e-05
4 *6:4 0.00029117
5 *6:5 0.000354766836

*RES
1 *20:B *6:5 3.06619
2 *6:4 *23:Q 1.94502
3 *6:5 *6:4 1.24444
4 *18:A0N *6:5 3.69882584
5 *6 *23:Q 0.499998
*END

*D_NET *7 0.000770569

*CONN
*I *23:QN O *C 15.805 9.425 *L 0 *D DFFRX2
*I *23:D I *C 22.765 9.135 *L 0.00166 *D DFFRX2

*CAP
1 *23:D 0.000296117
2 *23:QN 8.91678e-05
3 *7:2 0.000385284414

*RES
1 *7:2 *23:QN 1.84501
2 *23:D *7:2 4.34350967
*END

*D_NET *8 0.000409484

*CONN
*I *21:Y O *C 12.1175 8.845 *L 0 *D CLKINVX1
*I *14:D I *C 11.745 6.815 *L 0.0028 *D SDFFRHQX2

*CAP
1 *21:Y 6.67633e-06
2 *14:D 0.000198066
3 *8:2 0.000204741953

*RES
1 *14:D *8:2 2.83586979
2 *8:2 *21:Y 0.106795
*END

*D_NET *9 0.00153315

*CONN
*I *20:Y O *C 15.515 13.775 *L 0 *D AND2X1
*I *19:B I *C 11.745 16.965 *L 0.00167 *D NAND2XL
*I *18:B0 I *C 20.155 14.645 *L 0.00171 *D AOI2BB1XL
*I *16:A1 I *C 12.325 14.355 *L 0.00162 *D OA21XL

*CAP
1 *18:B0 0.000258507
2 *20:Y 4.6491e-05
3 *16:A1 4.14248e-05
4 *19:B 0.000137148
5 *9:4 0.000293552871
6 *9:5 9.48319e-05
7 *9:6 0.000253915
8 *9:7 0.000241042
9 *9:8 0.000166237

*RES
1 *9:8 *9:7 0.246403
2 *19:B *9:8 2.54658
3 *16:A1 *9:7 0.813612
4 *9:7 *9:6 2.06778
5 *9:5 *20:Y 0.983492
6 *9:6 *9:5 0.927336
7 *9:4 *9:6 0.347147
8 *18:B0 *9:4 3.55923176
*END

*D_NET *10 0.000376225

*CONN
*I *18:Y O *C 20.735 14.355 *L 0 *D AOI2BB1XL
*I *17:D I *C 22.765 12.035 *L 0.00231 *D DFFRHQX2

*CAP
1 *18:Y 8.80957e-05
2 *17:D 0.000100017
3 *10:2 0.000188112266

*RES
1 *17:D *10:2 2.36010551
2 *10:2 *18:Y 1.88791
*END

*D_NET *11 0.00106382

*CONN
*I *19:Y O *C 11.745 17.545 *L 0 *D NAND2XL
*I *16:B0 I *C 11.745 13.775 *L 0.0017 *D OA21XL
*I *14:SE I *C 10.875 6.815 *L 0.00483 *D SDFFRHQX2

*CAP
1 *16:B0 6.89593e-05
2 *19:Y 7.26899e-06
3 *14:SE 0.000287237
4 *11:3 0.000175713
5 *11:4 0.000524640078

*RES
1 *14:SE *11:4 4.13227081
2 *11:4 *11:3 2.27295
3 *11:3 *19:Y 0.106813
4 *16:B0 *11:4 2.01941
*END

*D_NET *12 0.000538111

*CONN
*I *16:Y O *C 11.165 14.645 *L 0 *D OA21XL
*I *15:D I *C 8.265 12.035 *L 0.00231 *D DFFRHQX2

*CAP
1 *16:Y 9.78715e-05
2 *15:D 0.000171184
3 *12:2 0.000269055371

*RES
1 *15:D *12:2 3.48234177
2 *12:2 *16:Y 1.46125
*END

*D_NET *13 0.002792

*CONN
*I *23:RN I *C 21.025 9.135 *L 0.00372 *D DFFRX2
*I *22:Y O *C 7.4775 6.525 *L 0 *D INVXL
*I *17:RN I *C 18.705 11.745 *L 0.0044 *D DFFRHQX2
*I *15:RN I *C 12.325 11.745 *L 0.0044 *D DFFRHQX2
*I *14:RN I *C 16.385 6.525 *L 0.00438 *D SDFFRHQX2

*CAP
1 *23:RN 0.000107405
2 *17:RN 0.000236038
3 *14:RN 0.000105266
4 *22:Y 0.000283001
5 *15:RN 9.85817e-05
6 *13:5 0.000232218
7 *13:6 0.000247
8 *13:7 0.000284195
9 *13:8 0.000289143
10 *13:9 0.000601708906
11 *13:10 0.000307442

*RES
1 *13:10 *13:9 2.54831
2 *15:RN *13:10 2.298
3 *13:9 *22:Y 4.23884392
4 *13:8 *13:9 1.27923
5 *14:RN *13:8 1.89951
6 *17:RN *13:7 3.45519
7 *13:7 *13:6 0.898335
8 *13:6 *13:8 0.782106
9 *23:RN *13:5 2.33662
10 *13:5 *13:6 1.85728
*END

